5
energy = -12.91840746933904
Si	0.9790079973987091	0.7013536380492476	1.0366911473458074	
Si	0.3622163058592739	3.0952397345432145	3.8568518567162027	
Si	3.708451990101249	0.5004685575426059	3.2159528631502257	
Si	3.8680112297210396	3.464445104814569	0.7342436776481821	
F	1.84973121828663	1.6317202217429863	2.462774772111645	
