8
energy = -42.863033448060094	unitCell = 0.0,5.43,0.0,5.43,0.0,5.43
Si	0.7131799739351882	0.7781200790101438	0.705061055503938	
Si	0.6859135091600486	3.386322554452263	3.4416802083232665	
Si	3.3275525374503894	0.5972503294242726	3.3639211627395462	
Si	3.39375	3.39375	0.67875	
Si	2.03625	2.03625	2.03625	
Si	2.03625	4.75125	4.75125	
Si	4.75125	2.03625	4.75125	
Si	4.75125	4.75125	2.03625	
