8
energy = -42.9722089462039	unitCell = 0.0,5.43,0.0,5.43,0.0,5.43
Si	0.6381165277476439	0.6638848626119034	0.693509515568252	
Si	0.6219907128824582	3.413816710367399	3.445495850340277	
Si	3.341245889218486	0.7161625202664281	3.342329482896529	
Si	3.39375	3.39375	0.67875	
Si	2.03625	2.03625	2.03625	
Si	2.03625	4.75125	4.75125	
Si	4.75125	2.03625	4.75125	
Si	4.75125	4.75125	2.03625	
