216
energy = 0 unitCell = 0,16.2909007072449,0,16.2909007072449,0,16.2909007072449     
Si     0.67878753      0.67878753      0.67878753
Si     0.67878753      3.39393765      3.39393765
Si     3.39393765      0.67878753      3.39393765
Si     3.39393765      3.39393765      0.67878753
Si     2.03636259      2.03636259      2.03636259
Si     2.03636259      4.75151271      4.75151271
Si     4.75151271      2.03636259      4.75151271
Si     4.75151271      4.75151271      2.03636259
Si     0.67878753      0.67878753      6.10908777
Si     0.67878753      3.39393765      8.82423788
Si     3.39393765      0.67878753      8.82423788
Si     3.39393765      3.39393765      6.10908777
Si     2.03636259      2.03636259      7.46666282
Si     2.03636259      4.75151271     10.18181294
Si     4.75151271      2.03636259     10.18181294
Si     4.75151271      4.75151271      7.46666282
Si     0.67878753      0.67878753     11.53938800
Si     0.67878753      3.39393765     14.25453812
Si     3.39393765      0.67878753     14.25453812
Si     3.39393765      3.39393765     11.53938800
Si     2.03636259      2.03636259     12.89696306
Si     2.03636259      4.75151271     15.61211318
Si     4.75151271      2.03636259     15.61211318
Si     4.75151271      4.75151271     12.89696306
Si     0.67878753      6.10908777      0.67878753
Si     0.67878753      8.82423788      3.39393765
Si     3.39393765      6.10908777      3.39393765
Si     3.39393765      8.82423788      0.67878753
Si     2.03636259      7.46666282      2.03636259
Si     2.03636259     10.18181294      4.75151271
Si     4.75151271      7.46666282      4.75151271
Si     4.75151271     10.18181294      2.03636259
Si     0.67878753      6.10908777      6.10908777
Si     0.67878753      8.82423788      8.82423788
Si     3.39393765      6.10908777      8.82423788
Si     3.39393765      8.82423788      6.10908777
Si     2.03636259      7.46666282      7.46666282
Si     2.03636259     10.18181294     10.18181294
Si     4.75151271      7.46666282     10.18181294
Si     4.75151271     10.18181294      7.46666282
Si     0.67878753      6.10908777     11.53938800
Si     0.67878753      8.82423788     14.25453812
Si     3.39393765      6.10908777     14.25453812
Si     3.39393765      8.82423788     11.53938800
Si     2.03636259      7.46666282     12.89696306
Si     2.03636259     10.18181294     15.61211318
Si     4.75151271      7.46666282     15.61211318
Si     4.75151271     10.18181294     12.89696306
Si     0.67878753     11.53938800      0.67878753
Si     0.67878753     14.25453812      3.39393765
Si     3.39393765     11.53938800      3.39393765
Si     3.39393765     14.25453812      0.67878753
Si     2.03636259     12.89696306      2.03636259
Si     2.03636259     15.61211318      4.75151271
Si     4.75151271     12.89696306      4.75151271
Si     4.75151271     15.61211318      2.03636259
Si     0.67878753     11.53938800      6.10908777
Si     0.67878753     14.25453812      8.82423788
Si     3.39393765     11.53938800      8.82423788
Si     3.39393765     14.25453812      6.10908777
Si     2.03636259     12.89696306      7.46666282
Si     2.03636259     15.61211318     10.18181294
Si     4.75151271     12.89696306     10.18181294
Si     4.75151271     15.61211318      7.46666282
Si     0.67878753     11.53938800     11.53938800
Si     0.67878753     14.25453812     14.25453812
Si     3.39393765     11.53938800     14.25453812
Si     3.39393765     14.25453812     11.53938800
Si     2.03636259     12.89696306     12.89696306
Si     2.03636259     15.61211318     15.61211318
Si     4.75151271     12.89696306     15.61211318
Si     4.75151271     15.61211318     12.89696306
Si     6.10908777      0.67878753      0.67878753
Si     6.10908777      3.39393765      3.39393765
Si     8.82423788      0.67878753      3.39393765
Si     8.82423788      3.39393765      0.67878753
Si     7.46666282      2.03636259      2.03636259
Si     7.46666282      4.75151271      4.75151271
Si    10.18181294      2.03636259      4.75151271
Si    10.18181294      4.75151271      2.03636259
Si     6.10908777      0.67878753      6.10908777
Si     6.10908777      3.39393765      8.82423788
Si     8.82423788      0.67878753      8.82423788
Si     8.82423788      3.39393765      6.10908777
Si     7.46666282      2.03636259      7.46666282
Si     7.46666282      4.75151271     10.18181294
Si    10.18181294      2.03636259     10.18181294
Si    10.18181294      4.75151271      7.46666282
Si     6.10908777      0.67878753     11.53938800
Si     6.10908777      3.39393765     14.25453812
Si     8.82423788      0.67878753     14.25453812
Si     8.82423788      3.39393765     11.53938800
Si     7.46666282      2.03636259     12.89696306
Si     7.46666282      4.75151271     15.61211318
Si    10.18181294      2.03636259     15.61211318
Si    10.18181294      4.75151271     12.89696306
Si     6.10908777      6.10908777      0.67878753
Si     6.10908777      8.82423788      3.39393765
Si     8.82423788      6.10908777      3.39393765
Si     8.82423788      8.82423788      0.67878753
Si     7.46666282      7.46666282      2.03636259
Si     7.46666282     10.18181294      4.75151271
Si    10.18181294      7.46666282      4.75151271
Si    10.18181294     10.18181294      2.03636259
Si     6.10908777      6.10908777      6.10908777
Si     6.10908777      8.82423788      8.82423788
Si     8.82423788      6.10908777      8.82423788
Si     8.82423788      8.82423788      6.10908777
Si     7.46666282      7.46666282      7.46666282
Si     7.46666282     10.18181294     10.18181294
Si    10.18181294      7.46666282     10.18181294
Si    10.18181294     10.18181294      7.46666282
Si     6.10908777      6.10908777     11.53938800
Si     6.10908777      8.82423788     14.25453812
Si     8.82423788      6.10908777     14.25453812
Si     8.82423788      8.82423788     11.53938800
Si     7.46666282      7.46666282     12.89696306
Si     7.46666282     10.18181294     15.61211318
Si    10.18181294      7.46666282     15.61211318
Si    10.18181294     10.18181294     12.89696306
Si     6.10908777     11.53938800      0.67878753
Si     6.10908777     14.25453812      3.39393765
Si     8.82423788     11.53938800      3.39393765
Si     8.82423788     14.25453812      0.67878753
Si     7.46666282     12.89696306      2.03636259
Si     7.46666282     15.61211318      4.75151271
Si    10.18181294     12.89696306      4.75151271
Si    10.18181294     15.61211318      2.03636259
Si     6.10908777     11.53938800      6.10908777
Si     6.10908777     14.25453812      8.82423788
Si     8.82423788     11.53938800      8.82423788
Si     8.82423788     14.25453812      6.10908777
Si     7.46666282     12.89696306      7.46666282
Si     7.46666282     15.61211318     10.18181294
Si    10.18181294     12.89696306     10.18181294
Si    10.18181294     15.61211318      7.46666282
Si     6.10908777     11.53938800     11.53938800
Si     6.10908777     14.25453812     14.25453812
Si     8.82423788     11.53938800     14.25453812
Si     8.82423788     14.25453812     11.53938800
Si     7.46666282     12.89696306     12.89696306
Si     7.46666282     15.61211318     15.61211318
Si    10.18181294     12.89696306     15.61211318
Si    10.18181294     15.61211318     12.89696306
Si    11.53938800      0.67878753      0.67878753
Si    11.53938800      3.39393765      3.39393765
Si    14.25453812      0.67878753      3.39393765
Si    14.25453812      3.39393765      0.67878753
Si    12.89696306      2.03636259      2.03636259
Si    12.89696306      4.75151271      4.75151271
Si    15.61211318      2.03636259      4.75151271
Si    15.61211318      4.75151271      2.03636259
Si    11.53938800      0.67878753      6.10908777
Si    11.53938800      3.39393765      8.82423788
Si    14.25453812      0.67878753      8.82423788
Si    14.25453812      3.39393765      6.10908777
Si    12.89696306      2.03636259      7.46666282
Si    12.89696306      4.75151271     10.18181294
Si    15.61211318      2.03636259     10.18181294
Si    15.61211318      4.75151271      7.46666282
Si    11.53938800      0.67878753     11.53938800
Si    11.53938800      3.39393765     14.25453812
Si    14.25453812      0.67878753     14.25453812
Si    14.25453812      3.39393765     11.53938800
Si    12.89696306      2.03636259     12.89696306
Si    12.89696306      4.75151271     15.61211318
Si    15.61211318      2.03636259     15.61211318
Si    15.61211318      4.75151271     12.89696306
Si    11.53938800      6.10908777      0.67878753
Si    11.53938800      8.82423788      3.39393765
Si    14.25453812      6.10908777      3.39393765
Si    14.25453812      8.82423788      0.67878753
Si    12.89696306      7.46666282      2.03636259
Si    12.89696306     10.18181294      4.75151271
Si    15.61211318      7.46666282      4.75151271
Si    15.61211318     10.18181294      2.03636259
Si    11.53938800      6.10908777      6.10908777
Si    11.53938800      8.82423788      8.82423788
Si    14.25453812      6.10908777      8.82423788
Si    14.25453812      8.82423788      6.10908777
Si    12.89696306      7.46666282      7.46666282
Si    12.89696306     10.18181294     10.18181294
Si    15.61211318      7.46666282     10.18181294
Si    15.61211318     10.18181294      7.46666282
Si    11.53938800      6.10908777     11.53938800
Si    11.53938800      8.82423788     14.25453812
Si    14.25453812      6.10908777     14.25453812
Si    14.25453812      8.82423788     11.53938800
Si    12.89696306      7.46666282     12.89696306
Si    12.89696306     10.18181294     15.61211318
Si    15.61211318      7.46666282     15.61211318
Si    15.61211318     10.18181294     12.89696306
Si    11.53938800     11.53938800      0.67878753
Si    11.53938800     14.25453812      3.39393765
Si    14.25453812     11.53938800      3.39393765
Si    14.25453812     14.25453812      0.67878753
Si    12.89696306     12.89696306      2.03636259
Si    12.89696306     15.61211318      4.75151271
Si    15.61211318     12.89696306      4.75151271
Si    15.61211318     15.61211318      2.03636259
Si    11.53938800     11.53938800      6.10908777
Si    11.53938800     14.25453812      8.82423788
Si    14.25453812     11.53938800      8.82423788
Si    14.25453812     14.25453812      6.10908777
Si    12.89696306     12.89696306      7.46666282
Si    12.89696306     15.61211318     10.18181294
Si    15.61211318     12.89696306     10.18181294
Si    15.61211318     15.61211318      7.46666282
Si    11.53938800     11.53938800     11.53938800
Si    11.53938800     14.25453812     14.25453812
Si    14.25453812     11.53938800     14.25453812
Si    14.25453812     14.25453812     11.53938800
Si    12.89696306     12.89696306     12.89696306
Si    12.89696306     15.61211318     15.61211318
Si    15.61211318     12.89696306     15.61211318
Si    15.61211318     15.61211318     12.89696306
54
energy = 0 unitCell = 0,10.2625501155853,0,10.2625501155853,0,10.2625501155853     
Si     0.85521251      0.85521251      0.85521251
Si     2.56563753      2.56563753      2.56563753
Si     0.85521251      0.85521251      4.27606255
Si     2.56563753      2.56563753      5.98648757
Si     0.85521251      0.85521251      7.69691259
Si     2.56563753      2.56563753      9.40733761
Si     0.85521251      4.27606255      0.85521251
Si     2.56563753      5.98648757      2.56563753
Si     0.85521251      4.27606255      4.27606255
Si     2.56563753      5.98648757      5.98648757
Si     0.85521251      4.27606255      7.69691259
Si     2.56563753      5.98648757      9.40733761
Si     0.85521251      7.69691259      0.85521251
Si     2.56563753      9.40733761      2.56563753
Si     0.85521251      7.69691259      4.27606255
Si     2.56563753      9.40733761      5.98648757
Si     0.85521251      7.69691259      7.69691259
Si     2.56563753      9.40733761      9.40733761
Si     4.27606255      0.85521251      0.85521251
Si     5.98648757      2.56563753      2.56563753
Si     4.27606255      0.85521251      4.27606255
Si     5.98648757      2.56563753      5.98648757
Si     4.27606255      0.85521251      7.69691259
Si     5.98648757      2.56563753      9.40733761
Si     4.27606255      4.27606255      0.85521251
Si     5.98648757      5.98648757      2.56563753
Si     4.27606255      4.27606255      4.27606255
Si     5.98648757      5.98648757      5.98648757
Si     4.27606255      4.27606255      7.69691259
Si     5.98648757      5.98648757      9.40733761
Si     4.27606255      7.69691259      0.85521251
Si     5.98648757      9.40733761      2.56563753
Si     4.27606255      7.69691259      4.27606255
Si     5.98648757      9.40733761      5.98648757
Si     4.27606255      7.69691259      7.69691259
Si     5.98648757      9.40733761      9.40733761
Si     7.69691259      0.85521251      0.85521251
Si     9.40733761      2.56563753      2.56563753
Si     7.69691259      0.85521251      4.27606255
Si     9.40733761      2.56563753      5.98648757
Si     7.69691259      0.85521251      7.69691259
Si     9.40733761      2.56563753      9.40733761
Si     7.69691259      4.27606255      0.85521251
Si     9.40733761      5.98648757      2.56563753
Si     7.69691259      4.27606255      4.27606255
Si     9.40733761      5.98648757      5.98648757
Si     7.69691259      4.27606255      7.69691259
Si     9.40733761      5.98648757      9.40733761
Si     7.69691259      7.69691259      0.85521251
Si     9.40733761      9.40733761      2.56563753
Si     7.69691259      7.69691259      4.27606255
Si     9.40733761      9.40733761      5.98648757
Si     7.69691259      7.69691259      7.69691259
Si     9.40733761      9.40733761      9.40733761
125
energy = 0 unitCell = 0,13.5755002498627,0,13.5755002498627,0,13.5755002498627     
Si     1.35755002      1.35755002      1.35755002
Si     1.35755002      1.35755002      4.07265007
Si     1.35755002      1.35755002      6.78775012
Si     1.35755002      1.35755002      9.50285017
Si     1.35755002      1.35755002     12.21795022
Si     1.35755002      4.07265007      1.35755002
Si     1.35755002      4.07265007      4.07265007
Si     1.35755002      4.07265007      6.78775012
Si     1.35755002      4.07265007      9.50285017
Si     1.35755002      4.07265007     12.21795022
Si     1.35755002      6.78775012      1.35755002
Si     1.35755002      6.78775012      4.07265007
Si     1.35755002      6.78775012      6.78775012
Si     1.35755002      6.78775012      9.50285017
Si     1.35755002      6.78775012     12.21795022
Si     1.35755002      9.50285017      1.35755002
Si     1.35755002      9.50285017      4.07265007
Si     1.35755002      9.50285017      6.78775012
Si     1.35755002      9.50285017      9.50285017
Si     1.35755002      9.50285017     12.21795022
Si     1.35755002     12.21795022      1.35755002
Si     1.35755002     12.21795022      4.07265007
Si     1.35755002     12.21795022      6.78775012
Si     1.35755002     12.21795022      9.50285017
Si     1.35755002     12.21795022     12.21795022
Si     4.07265007      1.35755002      1.35755002
Si     4.07265007      1.35755002      4.07265007
Si     4.07265007      1.35755002      6.78775012
Si     4.07265007      1.35755002      9.50285017
Si     4.07265007      1.35755002     12.21795022
Si     4.07265007      4.07265007      1.35755002
Si     4.07265007      4.07265007      4.07265007
Si     4.07265007      4.07265007      6.78775012
Si     4.07265007      4.07265007      9.50285017
Si     4.07265007      4.07265007     12.21795022
Si     4.07265007      6.78775012      1.35755002
Si     4.07265007      6.78775012      4.07265007
Si     4.07265007      6.78775012      6.78775012
Si     4.07265007      6.78775012      9.50285017
Si     4.07265007      6.78775012     12.21795022
Si     4.07265007      9.50285017      1.35755002
Si     4.07265007      9.50285017      4.07265007
Si     4.07265007      9.50285017      6.78775012
Si     4.07265007      9.50285017      9.50285017
Si     4.07265007      9.50285017     12.21795022
Si     4.07265007     12.21795022      1.35755002
Si     4.07265007     12.21795022      4.07265007
Si     4.07265007     12.21795022      6.78775012
Si     4.07265007     12.21795022      9.50285017
Si     4.07265007     12.21795022     12.21795022
Si     6.78775012      1.35755002      1.35755002
Si     6.78775012      1.35755002      4.07265007
Si     6.78775012      1.35755002      6.78775012
Si     6.78775012      1.35755002      9.50285017
Si     6.78775012      1.35755002     12.21795022
Si     6.78775012      4.07265007      1.35755002
Si     6.78775012      4.07265007      4.07265007
Si     6.78775012      4.07265007      6.78775012
Si     6.78775012      4.07265007      9.50285017
Si     6.78775012      4.07265007     12.21795022
Si     6.78775012      6.78775012      1.35755002
Si     6.78775012      6.78775012      4.07265007
Si     6.78775012      6.78775012      6.78775012
Si     6.78775012      6.78775012      9.50285017
Si     6.78775012      6.78775012     12.21795022
Si     6.78775012      9.50285017      1.35755002
Si     6.78775012      9.50285017      4.07265007
Si     6.78775012      9.50285017      6.78775012
Si     6.78775012      9.50285017      9.50285017
Si     6.78775012      9.50285017     12.21795022
Si     6.78775012     12.21795022      1.35755002
Si     6.78775012     12.21795022      4.07265007
Si     6.78775012     12.21795022      6.78775012
Si     6.78775012     12.21795022      9.50285017
Si     6.78775012     12.21795022     12.21795022
Si     9.50285017      1.35755002      1.35755002
Si     9.50285017      1.35755002      4.07265007
Si     9.50285017      1.35755002      6.78775012
Si     9.50285017      1.35755002      9.50285017
Si     9.50285017      1.35755002     12.21795022
Si     9.50285017      4.07265007      1.35755002
Si     9.50285017      4.07265007      4.07265007
Si     9.50285017      4.07265007      6.78775012
Si     9.50285017      4.07265007      9.50285017
Si     9.50285017      4.07265007     12.21795022
Si     9.50285017      6.78775012      1.35755002
Si     9.50285017      6.78775012      4.07265007
Si     9.50285017      6.78775012      6.78775012
Si     9.50285017      6.78775012      9.50285017
Si     9.50285017      6.78775012     12.21795022
Si     9.50285017      9.50285017      1.35755002
Si     9.50285017      9.50285017      4.07265007
Si     9.50285017      9.50285017      6.78775012
Si     9.50285017      9.50285017      9.50285017
Si     9.50285017      9.50285017     12.21795022
Si     9.50285017     12.21795022      1.35755002
Si     9.50285017     12.21795022      4.07265007
Si     9.50285017     12.21795022      6.78775012
Si     9.50285017     12.21795022      9.50285017
Si     9.50285017     12.21795022     12.21795022
Si    12.21795022      1.35755002      1.35755002
Si    12.21795022      1.35755002      4.07265007
Si    12.21795022      1.35755002      6.78775012
Si    12.21795022      1.35755002      9.50285017
Si    12.21795022      1.35755002     12.21795022
Si    12.21795022      4.07265007      1.35755002
Si    12.21795022      4.07265007      4.07265007
Si    12.21795022      4.07265007      6.78775012
Si    12.21795022      4.07265007      9.50285017
Si    12.21795022      4.07265007     12.21795022
Si    12.21795022      6.78775012      1.35755002
Si    12.21795022      6.78775012      4.07265007
Si    12.21795022      6.78775012      6.78775012
Si    12.21795022      6.78775012      9.50285017
Si    12.21795022      6.78775012     12.21795022
Si    12.21795022      9.50285017      1.35755002
Si    12.21795022      9.50285017      4.07265007
Si    12.21795022      9.50285017      6.78775012
Si    12.21795022      9.50285017      9.50285017
Si    12.21795022      9.50285017     12.21795022
Si    12.21795022     12.21795022      1.35755002
Si    12.21795022     12.21795022      4.07265007
Si    12.21795022     12.21795022      6.78775012
Si    12.21795022     12.21795022      9.50285017
Si    12.21795022     12.21795022     12.21795022
54
energy = 0 unitCell = 0,10.2625501155853,0,10.2625501155853,0,10.2625501155853     
Si     0.85521251      0.85521251      0.85521251
Si     2.56563753      2.56563753      2.56563753
Si     0.85521251      0.85521251      4.27606255
Si     2.56563753      2.56563753      5.98648757
Si     0.85521251      0.85521251      7.69691259
Si     2.56563753      2.56563753      9.40733761
Si     0.85521251      4.27606255      0.85521251
Si     2.56563753      5.98648757      2.56563753
Si     0.85521251      4.27606255      4.27606255
Si     2.56563753      5.98648757      5.98648757
Si     0.85521251      4.27606255      7.69691259
Si     2.56563753      5.98648757      9.40733761
Si     0.85521251      7.69691259      0.85521251
Si     2.56563753      9.40733761      2.56563753
Si     0.85521251      7.69691259      4.27606255
Si     2.56563753      9.40733761      5.98648757
Si     0.85521251      7.69691259      7.69691259
Si     2.56563753      9.40733761      9.40733761
Si     4.27606255      0.85521251      0.85521251
Si     5.98648757      2.56563753      2.56563753
Si     4.27606255      0.85521251      4.27606255
Si     5.98648757      2.56563753      5.98648757
Si     4.27606255      0.85521251      7.69691259
Si     5.98648757      2.56563753      9.40733761
Si     4.27606255      4.27606255      0.85521251
Si     5.98648757      5.98648757      2.56563753
Si     4.27606255      4.27606255      4.27606255
Si     5.98648757      5.98648757      5.98648757
Si     4.27606255      4.27606255      7.69691259
Si     5.98648757      5.98648757      9.40733761
Si     4.27606255      7.69691259      0.85521251
Si     5.98648757      9.40733761      2.56563753
Si     4.27606255      7.69691259      4.27606255
Si     5.98648757      9.40733761      5.98648757
Si     4.27606255      7.69691259      7.69691259
Si     5.98648757      9.40733761      9.40733761
Si     7.69691259      0.85521251      0.85521251
Si     9.40733761      2.56563753      2.56563753
Si     7.69691259      0.85521251      4.27606255
Si     9.40733761      2.56563753      5.98648757
Si     7.69691259      0.85521251      7.69691259
Si     9.40733761      2.56563753      9.40733761
Si     7.69691259      4.27606255      0.85521251
Si     9.40733761      5.98648757      2.56563753
Si     7.69691259      4.27606255      4.27606255
Si     9.40733761      5.98648757      5.98648757
Si     7.69691259      4.27606255      7.69691259
Si     9.40733761      5.98648757      9.40733761
Si     7.69691259      7.69691259      0.85521251
Si     9.40733761      9.40733761      2.56563753
Si     7.69691259      7.69691259      4.27606255
Si     9.40733761      9.40733761      5.98648757
Si     7.69691259      7.69691259      7.69691259
Si     9.40733761      9.40733761      9.40733761
