8
energy = -42.59805310503948	unitCell = 0.0,5.43,0.0,5.43,0.0,5.43
Si	0.7249256381406581	0.6607661622984403	0.6202929682619434	
Si	0.6452934111919022	3.487301181884824	3.294973436453152	
Si	3.4864909594046414	0.7667230777563819	3.4831889835326386	
Si	3.39375	3.39375	0.67875	
Si	2.03625	2.03625	2.03625	
Si	2.03625	4.75125	4.75125	
Si	4.75125	2.03625	4.75125	
Si	4.75125	4.75125	2.03625	
