8
energy = -42.88698922812234	unitCell = 0.0,5.43,0.0,5.43,0.0,5.43
Si	0.7661664297791939	0.6581848684369411	0.648253605840622	
Si	0.6375614064008073	3.3950467254652468	3.3169434176065313	
Si	3.447857176015835	0.7107285417386839	3.3250993781139693	
Si	3.39375	3.39375	0.67875	
Si	2.03625	2.03625	2.03625	
Si	2.03625	4.75125	4.75125	
Si	4.75125	2.03625	4.75125	
Si	4.75125	4.75125	2.03625	
