8
energy = -4.63 unitCell = 0,5.43,0,5.43,0,5.43
Si     0.67875000E+00  0.67875000E+00  0.67875000E+00
Si     0.67875000E+00  0.33937500E+01  0.33937500E+01
Si     0.33937500E+01  0.67875000E+00  0.33937500E+01
Si     0.33937500E+01  0.33937500E+01  0.67875000E+00
Si     0.20362500E+01  0.20362500E+01  0.20362500E+01
Si     0.20362500E+01  0.47512500E+01  0.47512500E+01
Si     0.47512500E+01  0.20362500E+01  0.47512500E+01
Si     0.47512500E+01  0.47512500E+01  0.20362500E+01
