4
energy = -76.98408605499303
C	0.0	0.0	0.0	
C	1.225822	-0.124765	-2.828075	
C	0.143604	1.397989	-0.373235	
C	-0.204397	-0.044504	-3.077735	
4
energy = -75.80259024042259
C	0.12611310797214859	0.05961840687027875	-0.13507831494212957	
C	1.4523655192158804	-0.11492921127170362	-3.007135318910901	
C	0.31773039617222154	1.5326699450667927	-0.1580634217664318	
C	0.012079291100397016	0.19788899853118763	-3.2826952617603498	
2
energy = -46.25980882267597
C	1.0742989894345842	0.9357247567806128	0.39328271259651604	
C	0.512074507294312	3.0578566579432156	3.4113220627383756	
