5
energy = -526.594469668858
Si	-0.09585	-0.36031	-0.08012	
F	-1.3833	-0.30316	-1.46262	
F	-0.86216	-1.13803	1.46262	
F	1.3833	-1.39557	-0.6391	
F	0.47875	1.39551	0.31863	
5
energy = -442.6733965437197
Si	0.2590218716654392	-0.7435297446349943	0.1745944888698698	
F	-1.1859565418333313	-0.01668520971985188	-1.6049545992005882	
F	-0.5861429108018122	-1.1763255276340054	1.509836445505138	
F	1.7238320536615632	-1.2426126231748755	-0.659120883949283	
F	0.43016544218255315	1.001702585641265	0.39911158666465246	
