3
energy = 184.53502631861994
F	0.0	0.0	0.0	
F	1.435	0.0	0.0	
F	-0.1560138933106171	1.1623933716404202	0.0	
3
energy = 208.36995832505036
F	0.0	0.0	0.0	
F	1.435	0.0	0.0	
F	-0.15889711362991543	1.1446523767084185	0.0	
3
energy = 203.85811342341955
F	0.0	0.0	0.0	
F	1.435	0.0	0.0	
F	-0.5286813698960827	1.0074279106713426	0.0	
3
energy = 226.2438520760334
F	0.0	0.0	0.0	
F	1.435	0.0	0.0	
F	-0.6861627638563096	0.8826569313844391	0.0	
3
energy = 183.80207598014061
F	0.0	0.0	0.0	
F	1.435	0.0	0.0	
F	-0.8062964201828057	0.801666258592505	0.0	
3
energy = 329.36890520438766
F	0.0	0.0	0.0	
F	1.435	0.0	0.0	
F	-0.8268813029137858	0.67815766345669	0.0	
3
energy = 498.8930825924202
F	0.0	0.0	0.0	
F	1.435	0.0	0.0	
F	-0.853831595183566	0.561564831225193	0.0	
3
energy = 131.19329300910022
F	0.0	0.0	0.0	
F	1.435	0.0	0.0	
F	-1.091663005820343	0.39180637387294254	0.0	
3
energy = 1308.8459625397586
F	0.0	0.0	0.0	
F	1.435	0.0	0.0	
F	-0.8903383596537282	0.2196497541139652	0.0	
3
energy = 363.13068920864094
F	0.0	0.0	0.0	
F	1.435	0.0	0.0	
F	-1.0520420262686134	0.014170286610117664	0.0	
3
energy = 15.232903192365814
F	0.0	0.0	0.0	
F	1.435	0.0	0.0	
F	-0.11032756636805074	1.5386829339051222	0.0	
3
energy = 37.3488582415074
F	0.0	0.0	0.0	
F	1.435	0.0	0.0	
F	-0.32021035007306153	1.343065219062382	0.0	
3
energy = 30.321568212125946
F	0.0	0.0	0.0	
F	1.435	0.0	0.0	
F	-0.5863247501675525	1.2283527656408317	0.0	
3
energy = 14.996163122889117
F	0.0	0.0	0.0	
F	1.435	0.0	0.0	
F	-0.6638396425247912	1.244360883010489	0.0	
3
energy = 17.02542642613829
F	0.0	0.0	0.0	
F	1.435	0.0	0.0	
F	-0.8155080939184154	1.1057914142025738	0.0	
3
energy = -0.5696707449271612
F	0.0	0.0	0.0	
F	1.435	0.0	0.0	
F	-1.0746768928525108	0.9173150864076262	0.0	
3
energy = 41.6192817221325
F	0.0	0.0	0.0	
F	1.435	0.0	0.0	
F	-1.0502207979565985	0.7194929131557406	0.0	
3
energy = 32.46521451415562
F	0.0	0.0	0.0	
F	1.435	0.0	0.0	
F	-1.1753540129892752	0.5046982357246118	0.0	
3
energy = -17.311137915639762
F	0.0	0.0	0.0	
F	1.435	0.0	0.0	
F	-1.4147388559357075	0.3460160022988298	0.0	
3
energy = -27.50133527384382
F	0.0	0.0	0.0	
F	1.435	0.0	0.0	
F	-1.5666979661170959	0.1554804927466964	0.0	
3
energy = -2.2455629537122164
F	0.0	0.0	0.0	
F	1.435	0.0	0.0	
F	-0.03132506297713	1.7375482385325711	0.0	
3
energy = -14.94819329100841
F	0.0	0.0	0.0	
F	1.435	0.0	0.0	
F	-0.5071667567023611	1.6944839905352616	0.0	
3
energy = -7.960482309856123
F	0.0	0.0	0.0	
F	1.435	0.0	0.0	
F	-0.5231495436877847	1.5589686127046676	0.0	
3
energy = -25.165701689789564
F	0.0	0.0	0.0	
F	1.435	0.0	0.0	
F	-1.0952451055136618	1.5165072499252754	0.0	
3
energy = -21.36174491638619
F	0.0	0.0	0.0	
F	1.435	0.0	0.0	
F	-1.0847685832291027	1.3224349888924556	0.0	
3
energy = -27.55287031826427
F	0.0	0.0	0.0	
F	1.435	0.0	0.0	
F	-1.4162053911325165	1.1279970767312433	0.0	
3
energy = -25.446247401280374
F	0.0	0.0	0.0	
F	1.435	0.0	0.0	
F	-1.4024463374946898	0.8859671195273969	0.0	
3
energy = -28.523211795277764
F	0.0	0.0	0.0	
F	1.435	0.0	0.0	
F	-1.545498403303958	0.6860503273166697	0.0	
3
energy = -31.613811411503843
F	0.0	0.0	0.0	
F	1.435	0.0	0.0	
F	-1.704025154353152	0.3062676133368838	0.0	
3
energy = -33.913742218220435
F	0.0	0.0	0.0	
F	1.435	0.0	0.0	
F	-1.8810200776118873	0.18050386803727095	0.0	
3
energy = -24.845198587502885
F	0.0	0.0	0.0	
F	1.435	0.0	0.0	
F	-0.31088511165251365	2.02266606429951	0.0	
3
energy = -30.298045543630217
F	0.0	0.0	0.0	
F	1.435	0.0	0.0	
F	-0.6746591571149819	2.062460681494104	0.0	
3
energy = -26.160533385169945
F	0.0	0.0	0.0	
F	1.435	0.0	0.0	
F	-0.7519410534036336	1.8581760794043936	0.0	
3
energy = -31.444164755715516
F	0.0	0.0	0.0	
F	1.435	0.0	0.0	
F	-1.2647527891317702	1.7415194609098108	0.0	
3
energy = -29.945104435211082
F	0.0	0.0	0.0	
F	1.435	0.0	0.0	
F	-1.3164470014921528	1.575587049666081	0.0	
3
energy = -28.123378914719964
F	0.0	0.0	0.0	
F	1.435	0.0	0.0	
F	-1.3606873349788147	1.3399238638339734	0.0	
3
energy = -35.568212277522484
F	0.0	0.0	0.0	
F	1.435	0.0	0.0	
F	-1.9548282817115792	1.0865997111173344	0.0	
3
energy = -36.158202625934194
F	0.0	0.0	0.0	
F	1.435	0.0	0.0	
F	-2.09887050180162	0.7008082953369443	0.0	
3
energy = -35.66473876009834
F	0.0	0.0	0.0	
F	1.435	0.0	0.0	
F	-2.074452803469866	0.3844264681390036	0.0	
3
energy = -35.179389129002104
F	0.0	0.0	0.0	
F	1.435	0.0	0.0	
F	-2.02128069335334	0.21249269817235716	0.0	
3
energy = -38.66247345828108
F	0.0	0.0	0.0	
F	1.435	0.0	0.0	
F	-0.40310224149666424	2.561889733185076	0.0	
3
energy = -37.00581267942821
F	0.0	0.0	0.0	
F	1.435	0.0	0.0	
F	-0.5824366959478013	2.4145720124078878	0.0	
3
energy = -36.206485128871556
F	0.0	0.0	0.0	
F	1.435	0.0	0.0	
F	-1.047307898723325	2.195127882915823	0.0	
3
energy = -38.13962426186136
F	0.0	0.0	0.0	
F	1.435	0.0	0.0	
F	-1.508003431912983	2.0578343956115437	0.0	
3
energy = -37.88022228444366
F	0.0	0.0	0.0	
F	1.435	0.0	0.0	
F	-1.7172592523699628	1.8330363260561509	0.0	
3
energy = -36.240465949166534
F	0.0	0.0	0.0	
F	1.435	0.0	0.0	
F	-1.7679902046279241	1.5676239080954772	0.0	
3
energy = -37.403899478389334
F	0.0	0.0	0.0	
F	1.435	0.0	0.0	
F	-2.083310138764861	1.190445571902061	0.0	
3
energy = -36.71812810607353
F	0.0	0.0	0.0	
F	1.435	0.0	0.0	
F	-2.1310797385954308	0.8245603099905616	0.0	
3
energy = -38.14138121587073
F	0.0	0.0	0.0	
F	1.435	0.0	0.0	
F	-2.337977064018821	0.5713387895713147	0.0	
3
energy = -37.169739006706415
F	0.0	0.0	0.0	
F	1.435	0.0	0.0	
F	-2.2548253176898383	0.026347332556084554	0.0	
3
energy = -39.91877371348128
F	0.0	0.0	0.0	
F	1.435	0.0	0.0	
F	-0.0962881668103513	2.702624982890066	0.0	
3
energy = -39.602439390250595
F	0.0	0.0	0.0	
F	1.435	0.0	0.0	
F	-0.6789514849459324	2.6266228364552813	0.0	
3
energy = -39.36800588481709
F	0.0	0.0	0.0	
F	1.435	0.0	0.0	
F	-1.054076699286809	2.479848428828778	0.0	
3
energy = -39.55451437632262
F	0.0	0.0	0.0	
F	1.435	0.0	0.0	
F	-1.3705352049642934	2.368729211236084	0.0	
3
energy = -39.65958195701621
F	0.0	0.0	0.0	
F	1.435	0.0	0.0	
F	-1.8169211541157482	2.097310629110644	0.0	
3
energy = -39.50420683388985
F	0.0	0.0	0.0	
F	1.435	0.0	0.0	
F	-2.039034432834095	1.794634765293831	0.0	
3
energy = -39.63192831628199
F	0.0	0.0	0.0	
F	1.435	0.0	0.0	
F	-2.3771725124592242	1.341479252927013	0.0	
3
energy = -39.617145295584315
F	0.0	0.0	0.0	
F	1.435	0.0	0.0	
F	-2.7569454753112463	1.1158274949014677	0.0	
3
energy = -39.712533703769296
F	0.0	0.0	0.0	
F	1.435	0.0	0.0	
F	-2.6634248719431546	0.4985755532210961	0.0	
3
energy = -39.69954810967026
F	0.0	0.0	0.0	
F	1.435	0.0	0.0	
F	-2.911596047006322	0.34159399910812316	0.0	
3
energy = -40.158401503121596
F	0.0	0.0	0.0	
F	1.435	0.0	0.0	
F	-0.07665909805434484	2.9945384297868154	0.0	
3
energy = -39.12356418314287
F	0.0	0.0	0.0	
F	1.435	0.0	0.0	
F	-1.0114683513888916	3.0964774659888166	0.0	
3
energy = -39.38600024840364
F	0.0	0.0	0.0	
F	1.435	0.0	0.0	
F	-1.2099883320804254	2.8800046079807315	0.0	
3
energy = -39.4417723224246
F	0.0	0.0	0.0	
F	1.435	0.0	0.0	
F	-1.6046874138186127	2.6221938391678123	0.0	
3
energy = -39.29972108742336
F	0.0	0.0	0.0	
F	1.435	0.0	0.0	
F	-2.040650807501725	2.370715800248953	0.0	
3
energy = -39.04335621031409
F	0.0	0.0	0.0	
F	1.435	0.0	0.0	
F	-2.6193386076887157	1.9562591978307844	0.0	
3
energy = -39.196134844929425
F	0.0	0.0	0.0	
F	1.435	0.0	0.0	
F	-2.750905586641471	1.5981910338379406	0.0	
3
energy = -39.21086694130098
F	0.0	0.0	0.0	
F	1.435	0.0	0.0	
F	-2.8903315724653926	1.3105610359153952	0.0	
3
energy = -39.41150306835151
F	0.0	0.0	0.0	
F	1.435	0.0	0.0	
F	-2.9797303888662987	0.7543514576760365	0.0	
3
energy = -39.15441840147921
F	0.0	0.0	0.0	
F	1.435	0.0	0.0	
F	-3.1754578158017495	0.42901061355282627	0.0	
3
energy = -39.22395438879887
F	0.0	0.0	0.0	
F	1.435	0.0	0.0	
F	-0.02535026198892354	3.332532582627932	0.0	
3
energy = -38.85745952290113
F	0.0	0.0	0.0	
F	1.435	0.0	0.0	
F	-0.8900887510396117	3.296126336132278	0.0	
3
energy = -38.87087284600035
F	0.0	0.0	0.0	
F	1.435	0.0	0.0	
F	-1.2726904590177128	3.139080658616992	0.0	
3
energy = -38.753922216755264
F	0.0	0.0	0.0	
F	1.435	0.0	0.0	
F	-1.8712731124007302	2.9281970540926765	0.0	
3
energy = -39.1503421977721
F	0.0	0.0	0.0	
F	1.435	0.0	0.0	
F	-1.9306591401419524	2.5603288148345897	0.0	
3
energy = -38.97583967856443
F	0.0	0.0	0.0	
F	1.435	0.0	0.0	
F	-2.3721577775900644	2.311322407009304	0.0	
3
energy = -38.60793873757126
F	0.0	0.0	0.0	
F	1.435	0.0	0.0	
F	-3.184902018306037	1.695985768785114	0.0	
3
energy = -39.02592399285287
F	0.0	0.0	0.0	
F	1.435	0.0	0.0	
F	-2.97960562041535	1.3713038666662758	0.0	
3
energy = -38.67686259447793
F	0.0	0.0	0.0	
F	1.435	0.0	0.0	
F	-3.467271649891221	0.7243479189142662	0.0	
3
energy = -38.62126089547148
F	0.0	0.0	0.0	
F	1.435	0.0	0.0	
F	-3.5814580307566466	0.31176030528371507	0.0	
3
energy = -38.36814808754021
F	0.0	0.0	0.0	
F	1.435	0.0	0.0	
F	-0.4227104143459881	3.901889802011423	0.0	
3
energy = -38.53665638875858
F	0.0	0.0	0.0	
F	1.435	0.0	0.0	
F	-0.7445355709543146	3.609046863084379	0.0	
3
energy = -38.366720712362955
F	0.0	0.0	0.0	
F	1.435	0.0	0.0	
F	-1.7959253346280417	3.492834173507229	0.0	
3
energy = -38.45797640413081
F	0.0	0.0	0.0	
F	1.435	0.0	0.0	
F	-1.9924147365498626	3.214719378263743	0.0	
3
energy = -38.5000466808466
F	0.0	0.0	0.0	
F	1.435	0.0	0.0	
F	-2.4256112803569025	2.830855825151811	0.0	
3
energy = -38.38914812909824
F	0.0	0.0	0.0	
F	1.435	0.0	0.0	
F	-2.931853145638745	2.5511539717475067	0.0	
3
energy = -38.61952086982976
F	0.0	0.0	0.0	
F	1.435	0.0	0.0	
F	-3.1013699298454704	1.821521634243094	0.0	
3
energy = -38.47284405626942
F	0.0	0.0	0.0	
F	1.435	0.0	0.0	
F	-3.524383332460314	1.3166910508648213	0.0	
3
energy = -38.45138119136609
F	0.0	0.0	0.0	
F	1.435	0.0	0.0	
F	-3.662226877909645	0.9800821989330577	0.0	
3
energy = -38.54976050063326
F	0.0	0.0	0.0	
F	1.435	0.0	0.0	
F	-3.651422479290917	0.36803767597399223	0.0	
3
energy = -38.323872845639535
F	0.0	0.0	0.0	
F	1.435	0.0	0.0	
F	-0.40145878267661594	4.009448895898531	0.0	
3
energy = -38.30938452295344
F	0.0	0.0	0.0	
F	1.435	0.0	0.0	
F	-1.0168854538226844	3.954288532441107	0.0	
3
energy = -38.295792684575524
F	0.0	0.0	0.0	
F	1.435	0.0	0.0	
F	-1.8017728953409249	3.8089426715942616	0.0	
3
energy = -38.30866026789301
F	0.0	0.0	0.0	
F	1.435	0.0	0.0	
F	-2.140302104414007	3.4809685864137236	0.0	
3
energy = -38.29542022207211
F	0.0	0.0	0.0	
F	1.435	0.0	0.0	
F	-2.9376162990138677	3.2004077175685186	0.0	
3
energy = -38.299449506102704
F	0.0	0.0	0.0	
F	1.435	0.0	0.0	
F	-3.2831709002211977	2.5318841472815303	0.0	
3
energy = -38.361057932396
F	0.0	0.0	0.0	
F	1.435	0.0	0.0	
F	-3.4038342453123325	1.9818950478934392	0.0	
3
energy = -38.29827864061316
F	0.0	0.0	0.0	
F	1.435	0.0	0.0	
F	-3.8542797495118566	1.562721515889253	0.0	
3
energy = -38.29749800358251
F	0.0	0.0	0.0	
F	1.435	0.0	0.0	
F	-3.994467705410705	1.196683571783811	0.0	
3
energy = -38.31864699820384
F	0.0	0.0	0.0	
F	1.435	0.0	0.0	
F	-4.0463594911922804	0.034050810440098216	0.0	
