5
energy = -226.76966230
Si      0.679   0.679   0.679
Si      0.679   3.394   3.394
Si      3.394   0.679   3.394
Si      3.394   3.394   0.679
Si      2.036   2.036   2.036
5
energy = -216.80204671
Si      0.267   0.937   0.298
Si      0.765   3.703   2.912
Si      3.319   0.379   2.906
Si      3.598   3.366   1.021
Si      1.782   2.320   1.611
5
energy = -218.44107278
Si      0.308   0.722   0.635
Si      0.634   3.673   3.167
Si      3.502   0.956   3.003
Si      3.383   3.789   0.864
Si      2.148   2.268   1.802
5
energy = -140.20218242
Si      0.264   0.491   0.341
Si      0.838   3.117   3.839
Si      3.812   0.884   3.388
Si      3.064   3.449   0.892
Si      1.867   2.507   2.046
5
energy = -206.67573150
Si      1.090   1.097   0.292
Si      0.738   3.789   3.371
Si      2.916   0.567   3.427
Si      3.215   3.639   0.656
Si      1.606   2.480   2.237
5
energy = -193.15611905
Si      0.894   0.239   1.104
Si      0.973   3.217   3.724
Si      3.456   0.238   3.796
Si      3.471   3.590   0.630
Si      2.221   2.420   1.968
5
energy = -214.54717501
Si      0.729   0.535   0.564
Si      0.226   3.827   3.024
Si      3.438   0.841   3.621
Si      3.015   2.926   1.130
Si      1.902   1.967   2.525
5
energy = -242.53523941
Si      0.639   1.086   0.976
Si      0.703   3.797   3.244
Si      2.979   0.366   3.035
Si      3.171   3.268   0.938
Si      1.960   2.328   2.462
5
energy = 419.30007115
Si      0.843   1.042   0.345
Si      1.020   3.371   2.942
Si      3.743   0.956   3.407
Si      3.057   3.337   0.902
Si      1.777   2.518   1.637
5
energy = -198.64712773
Si      0.628   0.479   0.782
Si      0.466   3.799   3.149
Si      3.779   0.452   3.453
Si      3.692   2.994   0.955
Si      1.916   1.580   1.988
5
energy = -236.02556294
Si      0.311   1.104   0.863
Si      0.931   2.933   3.695
Si      3.171   0.920   3.276
Si      3.452   3.523   0.402
Si      2.464   2.504   1.821
5
energy = -94.65558769
Si      0.637   0.847   0.660
Si      0.603   2.910   3.337
Si      3.505   0.209   3.494
Si      2.936   3.793   0.254
Si      1.719   1.913   1.669
5
energy = -160.65412771
Si      0.779   0.363   0.645
Si      0.646   3.889   3.190
Si      3.798   0.332   3.367
Si      3.889   3.124   0.832
Si      2.277   2.302   1.624
5
energy = -172.13578737
Si      0.184   0.298   0.704
Si      0.538   3.356   3.812
Si      3.670   0.708   3.454
Si      3.597   3.464   0.542
Si      1.549   1.732   1.989
5
energy = -192.45633674
Si      0.801   0.181   1.119
Si      0.343   3.828   3.632
Si      3.459   0.230   3.042
Si      3.333   3.266   0.967
Si      1.969   1.723   1.815
5
energy = -71.19630629
Si      0.420   0.358   0.659
Si      0.794   2.949   3.152
Si      3.603   0.275   3.690
Si      3.405   3.036   0.533
Si      1.844   1.998   2.049
5
energy = -55.50849868
Si      0.968   0.448   0.271
Si      0.921   3.023   3.708
Si      3.079   1.024   2.916
Si      3.350   3.086   0.804
Si      1.712   2.057   2.319
5
energy = -197.46883463
Si      0.486   0.232   0.898
Si      0.431   3.776   3.788
Si      3.419   0.903   3.456
Si      3.791   3.382   0.851
Si      1.949   2.225   2.281
5
energy = 2433.33197721
Si      0.798   1.099   1.045
Si      0.682   3.875   3.878
Si      3.137   0.625   3.865
Si      3.477   3.538   0.800
Si      1.661   1.687   2.042
5
energy = 83.60287622
Si      0.761   0.676   0.702
Si      0.497   3.133   3.740
Si      3.060   1.100   3.035
Si      3.010   3.168   0.181
Si      2.204   1.915   1.804
5
energy = -83.89925078
Si      0.866   1.110   1.143
Si      0.299   3.890   2.902
Si      3.807   1.148   2.983
Si      3.400   2.899   0.629
Si      2.144   1.893   2.123
5
energy = -222.85673214
Si      0.403   0.356   0.343
Si      0.306   3.168   2.964
Si      3.293   1.119   3.499
Si      3.226   3.111   0.955
Si      1.691   1.740   2.248
5
energy = 2993.33502805
Si      0.258   1.045   0.683
Si      1.144   3.406   2.959
Si      3.638   0.517   2.911
Si      3.427   3.054   0.258
Si      1.597   2.451   2.013
5
energy = -41.40154944
Si      0.636   1.084   0.552
Si      0.401   3.215   3.621
Si      3.657   0.787   3.096
Si      3.037   3.799   0.708
Si      2.332   1.786   2.497
5
energy = -219.18505266
Si      0.202   1.143   0.752
Si      0.482   3.512   3.078
Si      3.351   0.908   3.239
Si      3.613   3.141   0.519
Si      2.387   2.174   1.862
5
energy = -68.14386037
Si      1.109   1.126   0.409
Si      0.655   3.133   3.060
Si      3.178   0.445   2.929
Si      3.232   3.047   0.326
Si      2.099   1.551   2.067
5
energy = 9.86601636
Si      0.944   0.715   0.759
Si      0.573   3.407   3.424
Si      3.127   0.786   3.606
Si      3.206   3.532   0.449
Si      2.490   1.910   2.452
5
energy = -161.45026871
Si      0.224   0.183   0.885
Si      1.018   3.179   3.293
Si      3.523   0.729   2.922
Si      3.188   3.203   1.006
Si      2.136   1.952   2.015
5
energy = 404.74286195
Si      1.155   0.985   1.146
Si      0.885   3.600   3.400
Si      3.059   0.710   3.817
Si      3.510   3.589   0.872
Si      1.783   2.005   2.241
5
energy = -185.81225548
Si      0.843   0.364   0.982
Si      0.349   3.614   3.236
Si      3.452   0.538   3.704
Si      3.602   2.975   1.038
Si      2.089   1.649   1.868
5
energy = -191.85187051
Si      0.318   0.993   0.306
Si      0.297   3.778   3.313
Si      3.215   0.670   3.314
Si      3.640   3.430   1.080
Si      1.909   1.674   1.544
5
energy = -170.96314574
Si      1.054   0.536   0.461
Si      0.706   3.452   3.762
Si      3.881   0.685   3.493
Si      3.657   2.953   0.968
Si      2.127   2.205   1.850
5
energy = -225.36611183
Si      0.432   0.600   0.601
Si      0.284   3.684   3.593
Si      3.059   0.314   2.937
Si      3.534   2.940   0.917
Si      1.876   2.181   2.085
5
energy = -195.88436078
Si      0.425   0.834   0.279
Si      0.556   3.462   2.948
Si      3.739   0.648   3.469
Si      3.882   2.997   0.304
Si      1.997   1.568   2.170
5
energy = -215.96885536
Si      0.688   0.978   0.317
Si      0.500   3.630   3.511
Si      3.131   0.569   3.447
Si      3.365   2.956   1.176
Si      1.743   1.660   1.961
5
energy = 158.53653883
Si      1.141   0.584   0.342
Si      0.927   2.916   3.309
Si      3.513   0.771   2.988
Si      3.162   3.264   0.218
Si      2.226   2.229   2.491
5
energy = 92.47813452
Si      0.467   0.964   1.086
Si      0.381   3.435   3.100
Si      3.507   1.143   3.166
Si      3.666   3.503   0.269
Si      1.791   1.803   1.747
5
energy = -141.45695973
Si      0.918   0.529   0.768
Si      0.471   2.921   3.745
Si      3.156   0.301   2.920
Si      3.280   3.776   0.520
Si      1.633   2.290   2.475
5
energy = 203.70487228
Si      0.519   0.810   0.979
Si      1.106   2.937   3.180
Si      3.323   0.751   3.485
Si      3.854   2.967   0.718
Si      2.235   2.379   2.092
5
energy = -196.38727538
Si      1.153   0.706   0.247
Si      0.226   3.714   3.660
Si      3.575   1.148   3.795
Si      3.117   3.750   0.245
Si      1.963   2.182   2.119
5
energy = 525.70607804
Si      0.738   0.852   0.873
Si      0.463   3.119   3.208
Si      3.818   0.387   3.405
Si      2.971   3.308   0.914
Si      1.811   1.662   1.746
5
energy = 2226.56417859
Si      0.340   0.749   1.050
Si      0.218   3.808   3.858
Si      3.592   1.063   3.512
Si      3.116   3.342   1.018
Si      2.429   2.394   1.883
5
energy = -215.15547743
Si      0.552   0.452   1.139
Si      0.664   3.418   3.098
Si      3.799   1.065   3.683
Si      3.495   2.946   0.814
Si      2.009   1.630   1.845
5
energy = -86.53097564
Si      0.759   0.217   0.876
Si      0.630   3.483   3.452
Si      3.211   0.649   3.346
Si      3.631   3.087   0.959
Si      1.597   1.594   1.650
5
energy = -183.33245246
Si      0.222   0.832   0.731
Si      0.180   3.427   3.419
Si      3.265   0.409   3.288
Si      3.726   3.676   1.082
Si      2.460   2.303   2.044
5
energy = 1170.29614820
Si      0.304   1.167   0.872
Si      0.488   3.112   2.903
Si      3.448   0.756   3.630
Si      3.394   3.078   0.427
Si      1.607   1.578   1.554
5
energy = -223.72578778
Si      0.934   0.612   0.855
Si      0.188   3.796   2.895
Si      3.061   0.712   3.328
Si      2.936   3.129   0.584
Si      2.399   2.471   2.445
5
energy = -182.72747369
Si      0.366   0.726   0.242
Si      0.524   3.268   3.253
Si      3.638   0.262   3.032
Si      3.179   3.358   0.637
Si      2.349   1.741   2.471
5
energy = -157.87935003
Si      0.245   0.612   0.846
Si      0.864   3.433   3.120
Si      3.825   0.358   3.450
Si      3.008   3.597   0.895
Si      2.517   2.519   2.506
5
energy = -70.67719982
Si      0.908   0.440   0.834
Si      0.291   3.292   3.612
Si      3.168   1.139   3.837
Si      3.055   2.961   0.998
Si      1.842   1.900   1.790
5
energy = -183.63703211
Si      0.732   0.617   0.432
Si      0.412   3.601   3.749
Si      3.255   0.195   3.190
Si      3.517   3.840   0.460
Si      1.880   2.052   2.004
